{:navgroup: .navgroup}
{:topicgroup: .topicgroup}

{: .toc subcollection="CDN" category="network" audience="service" href="/docs/infrastructure/CDN/getting-started.html" path="infrastructure/CDN"}
Content Delivery Network (CDN)

    {: .navgroup id="learn"}
    getting-started.md
    about.md
    feature-descriptions.md
    about-https.md
    naas-video.md

    {: .topicgroup}
    Tutorials
        /tutorials/solution-tutorials-static-files-cdn
        /tutorials/solution-tutorials-dynamic-content-cdn
    
    whats-new.md
    pricing.md
    {: .navgroup-end}

    {: .navgroup id="howto"}
    how-to-order.md
    basic-functions.md
    how-to.md
    dynamic-content-acceleration.md
    how-to-https.md
    cors-and-cdn.md
    control-http-client-cache-duration.md
    how-to-configure-object-storage.md
    serve-video-on-demand-with-cdn.md
    byte-range-request.md
    metrics.md
    {: .navgroup-end}

    {: .navgroup id="help"}
    faqs.md
    https-faq.md
    rules-and-naming-conventions.md
    limits-and-max-values.md
    known-limitations.md
    troubleshooting.md
    getting-help.md
    {: .navgroup-end}

    {: .navgroup id="reference"}
    api.md

    {: .topicgroup}
    API Class Containers
        dynamic-content-acceleration-container.md
        geoblock-behavior.md
        hotlink-protection-behavior.md
        input-container.md
        mapping-container.md
        metrics-container.md
        path-container.md
        vendor-container.md
        
    cdn-example-code.md
    legacy-portal.md
    edge-servers.md
    
    {: .topicgroup}
    Regions
        asia-region.md
        emea-region.md
        north-america-region.md
        south-america-region.md
    {: .navgroup-end}
