{:navgroup: .navgroup}
{:topicgroup: .topicgroup}

{: .toc subcollection="CDN" category="network_edge" audience="service" href="/docs/CDN?topic=CDN-getting-started" console-page="/cdn" product-page="https://www.ibm.com/cloud/cdn" path="CDN"}
Content Delivery Network (CDN)

    {: .navgroup id="learn"}
    getting-started.md
    about.md
    pricing.md
    about-https.md

    {: .topicgroup}
    Videos & tutorials
        video-networking-overview.md
        video-what-is-cdn.md
        video-set-up-web-app.md
        /solution-tutorials/solution-tutorials-static-files-cdn
        /solution-tutorials/solution-tutorials-dynamic-content-cdn

    [What are Content Delivery Networks?](https://www.ibm.com/cloud/learn/content-delivery-networks)
    {: .navgroup-end}

    {: .navgroup id="howto"}
    {: .topicgroup}
    Creating a CDN
        how-to-order.md
        running-status.md
        how-to-https.md
        verify-cdn-before-running.md

    {: .topicgroup}
    Managing a CDN
        starting_cdn.md
        stopping_cdn.md
        deleting_cdn.md
        updating-config-details.md
        adding-origin-path-details.md
        dynamic-content-acceleration.md
        how-to-configure-object-storage.md
        serve-video-on-demand-with-cdn.md

     {: .topicgroup}
    Configuring caching behavior
        control-http-client-cache-duration.md
        setting-content-caching-time-using-ttl.md
        how-to.md

    cors-and-cdn.md
    byte-range-request.md
    metrics.md
    token-authentication.md
    {: .navgroup-end}

    {: .navgroup id="reference"}
    api.md

    {: .topicgroup}
    API class containers
        dynamic-content-acceleration-container.md
        geoblock-behavior.md
        hotlink-protection-behavior.md
        input-container.md
        mapping-container.md
        metrics-container.md
        modify-response-header-container.md
        path-container.md
        token-auth-container.md
        vendor-container.md
        purge-group-container.md
        purge-history-container.md

    at-events.md
    cdn-example-code.md
    edge-servers.md
    legacy-portal.md

    {: .topicgroup}
    Regions
        asia-region.md
        emea-region.md
        north-america-region.md
        south-america-region.md
        
    [Terraform](https://cloud.ibm.com/docs/terraform?topic=terraform-getting-started)
    {: .navgroup-end}

    {: .navgroup id="help"}
    {: .topicgroup}
    FAQs
        faqs.md
        https-faq.md
        rules-and-naming-conventions.md
        limits-and-max-values.md

    known-limitations.md
    whats-new.md

    {: .topicgroup}
    Troubleshooting
        ts-cdn-working.md
        ts-503-error.md
        ts-hostname-does-not-load.md
        ts-cannot-connect-https.md
        ts-loading-cname-hostname.md
    
    getting-help.md
    {: .navgroup-end}
