{:navgroup: .navgroup}
{:topicgroup: .topicgroup}

{: .toc subcollection="CDN" category="network_edge" audience="service" href="/docs/CDN?topic=CDN-getting-started" console-page="/classic/network/cdn" product-page="https://www.ibm.com/cloud/cdn" path="CDN"}
Content Delivery Network (CDN)

    {: .navgroup id="learn"}
    getting-started.md
    about.md
    pricing.md
    about-https.md

    {: .topicgroup}
    Videos & tutorials
        [Video: IBM Cloud Networking Overview](https://www.youtube.com/watch?v=KMRAXSu6KJ8)
        [Video: What is Content Delivery Network?](https://www.youtube.com/watch?v=Bsq5cKkS33I)
        [Video: How to set up a web app with security groups, load balancers, and CDN](https://www.youtube.com/watch?time_continue=1&v=LRvNCXvtkX0&)
        /solution-tutorials/solution-tutorials-static-files-cdn
        /solution-tutorials/solution-tutorials-dynamic-content-cdn

    [What are Content Delivery Networks?](https://www.ibm.com/cloud/learn/content-delivery-networks)
    {: .navgroup-end}

    {: .navgroup id="howto"}
    {: .topicgroup}
    Creating a CDN
        how-to-order.md
        running-status.md
        how-to-https.md
        verify-cdn-before-running.md

    {: .topicgroup}
    Managing a CDN
        starting_cdn.md
        stopping_cdn.md
        deleting_cdn.md
        adding-origin-path-details.md
        dynamic-content-acceleration.md
        how-to-configure-object-storage.md
        serve-video-on-demand-with-cdn.md

     {: .topicgroup}
    Configuring caching behavior
        control-http-client-cache-duration.md
        setting-content-caching-time-using-ttl.md
        how-to.md

    at-events.md
    cors-and-cdn.md
    byte-range-request.md
    metrics.md
    token-authentication.md
    {: .navgroup-end}

    {: .navgroup id="reference"}
    api.md

    {: .topicgroup}
    API class containers
        dynamic-content-acceleration-container.md
        geoblock-behavior.md
        hotlink-protection-behavior.md
        input-container.md
        mapping-container.md
        metrics-container.md
        path-container.md
        token-auth-container.md
        vendor-container.md
        purge-group-container.md
        purge-history-container.md

    cdn-example-code.md
    edge-servers.md
    legacy-portal.md

    {: .topicgroup}
    Regions
        asia-region.md
        emea-region.md
        north-america-region.md
        south-america-region.md
    {: .navgroup-end}

    {: .navgroup id="help"}
    {: .topicgroup}
    FAQs
        faqs.md
        https-faq.md
        rules-and-naming-conventions.md
        limits-and-max-values.md

    known-limitations.md
    whats-new.md
    troubleshooting.md
    getting-help.md
    {: .navgroup-end}
