{:navgroup: .navgroup}
{:topicgroup: .topicgroup}

{: .toc subcollection="CDN" category="network" audience="service" href="/docs/CDN?topic=CDN-getting-started" console-page="/classic/network/cdn" product-page="https://www.ibm.com/cloud/cdn" path="CDN"}
Content Delivery Network

    {: .navgroup id="learn"}
    getting-started.md
    about.md 
    whats-new.md
    pricing.md
    about-https.md

    {: .topicgroup}
    Tutorials & video
        /tutorials/solution-tutorials-static-files-cdn
        /tutorials/solution-tutorials-dynamic-content-cdn  
        naas-video.md
        
    [What are content delivery networks?](https://www.ibm.com/cloud/learn/content-delivery-networks)
    {: .navgroup-end}

    {: .navgroup id="howto"}
    how-to-order.md
    basic-functions.md
    how-to.md
    verify-cdn-before-running.md
    dynamic-content-acceleration.md
    how-to-https.md
    cors-and-cdn.md
    control-http-client-cache-duration.md
    how-to-configure-object-storage.md
    serve-video-on-demand-with-cdn.md
    byte-range-request.md
    metrics.md
    {: .navgroup-end}

    {: .navgroup id="reference"}
    api.md

    {: .topicgroup}
    API class containers
        dynamic-content-acceleration-container.md
        geoblock-behavior.md
        hotlink-protection-behavior.md
        input-container.md
        mapping-container.md
        metrics-container.md
        path-container.md
        vendor-container.md
        purge-group-container.md
        purge-history-container.md
        
    cdn-example-code.md
    edge-servers.md
    at-events.md    
    legacy-portal.md

    {: .topicgroup}
    Regions
        asia-region.md
        emea-region.md
        north-america-region.md
        south-america-region.md
    {: .navgroup-end}
    
    {: .navgroup id="help"}    
    known-limitations.md
    
    {: .topicgroup}
    FAQs
        faqs.md
        https-faq.md
        rules-and-naming-conventions.md
        limits-and-max-values.md
           
    troubleshooting.md
    getting-help.md
    {: .navgroup-end}
